timeseries_voltage.csv
Bus,BasekV,Node1,Magnitude1,Angle1,pu1,Node2,Magnitude2,Angle2,pu2,Node3,Magnitude3,Angle3,pu3,Step
611,4.16,3,2497.8,121.8,1.04,0,0.0,0.0,0.0,0,0.0,0.0,0.0,1
611,4.16,3,2498.18,121.8,1.0401,0,0.0,0.0,0.0,0,0.0,0.0,0.0,2
611,4.16,3,2498.14,121.8,1.0401,0,0.0,0.0,0.0,0,0.0,0.0,0.0,3
611,4.16,3,2498.1,121.8,1.0401,0,0.0,0.0,0.0,0,0.0,0.0,0.0,4
611,4.16,3,2496.6,121.8,1.0395,0,0.0,0.0,0.0,0,0.0,0.0,0.0,5
611,4.16,3,2495.27,121.8,1.0389,0,0.0,0.0,0.0,0,0.0,0.0,0.0,6
611,4.16,3,2489.96,121.9,1.0367,0,0.0,0.0,0.0,0,0.0,0.0,0.0,7
611,4.16,3,2507.3,122.0,1.0439,0,0.0,0.0,0.0,0,0.0,0.0,0.0,8
611,4.16,3,2508.68,122.1,1.0445,0,0.0,0.0,0.0,0,0.0,0.0,0.0,9
611,4.16,3,2511.21,122.1,1.0456,0,0.0,0.0,0.0,0,0.0,0.0,0.0,10
611,4.16,3,2508.8,122.1,1.0446,0,0.0,0.0,0.0,0,0.0,0.0,0.0,11
611,4.16,3,2507.02,122.1,1.0438,0,0.0,0.0,0.0,0,0.0,0.0,0.0,12
611,4.16,3,2505.09,122.2,1.043,0,0.0,0.0,0.0,0,0.0,0.0,0.0,13
611,4.16,3,2505.24,122.2,1.0431,0,0.0,0.0,0.0,0,0.0,0.0,0.0,14
611,4.16,3,2505.74,122.2,1.0433,0,0.0,0.0,0.0,0,0.0,0.0,0.0,15
611,4.16,3,2505.63,122.1,1.0432,0,0.0,0.0,0.0,0,0.0,0.0,0.0,16
611,4.16,3,2503.61,122.1,1.0424,0,0.0,0.0,0.0,0,0.0,0.0,0.0,17
611,4.16,3,2493.04,122.0,1.038,0,0.0,0.0,0.0,0,0.0,0.0,0.0,18
611,4.16,3,2481.3,121.9,1.0331,0,0.0,0.0,0.0,0,0.0,0.0,0.0,19
611,4.16,3,2482.69,121.9,1.0337,0,0.0,0.0,0.0,0,0.0,0.0,0.0,20
611,4.16,3,2484.19,121.9,1.0343,0,0.0,0.0,0.0,0,0.0,0.0,0.0,21
611,4.16,3,2487.72,121.8,1.0358,0,0.0,0.0,0.0,0,0.0,0.0,0.0,22
611,4.16,3,2494.27,121.8,1.0385,0,0.0,0.0,0.0,0,0.0,0.0,0.0,23
611,4.16,3,2493.3,121.8,1.0381,0,0.0,0.0,0.0,0,0.0,0.0,0.0,24
611,4.16,3,2493.54,121.7,1.0382,0,0.0,0.0,0.0,0,0.0,0.0,0.0,25
611,4.16,3,2494.04,121.7,1.0384,0,0.0,0.0,0.0,0,0.0,0.0,0.0,26
611,4.16,3,2494.08,121.7,1.0384,0,0.0,0.0,0.0,0,0.0,0.0,0.0,27
611,4.16,3,2493.86,121.7,1.0383,0,0.0,0.0,0.0,0,0.0,0.0,0.0,28
611,4.16,3,2491.67,121.8,1.0374,0,0.0,0.0,0.0,0,0.0,0.0,0.0,29
611,4.16,3,2482.86,121.7,1.0338,0,0.0,0.0,0.0,0,0.0,0.0,0.0,30
611,4.16,3,2391.11,121.5,0.99556,0,0.0,0.0,0.0,0,0.0,0.0,0.0,31
611,4.16,3,2405.85,121.6,1.0017,0,0.0,0.0,0.0,0,0.0,0.0,0.0,32
611,4.16,3,2387.43,121.5,0.9940200000000001,0,0.0,0.0,0.0,0,0.0,0.0,0.0,33
611,4.16,3,2392.03,121.5,0.9959399999999999,0,0.0,0.0,0.0,0,0.0,0.0,0.0,34
611,4.16,3,2396.92,121.5,0.99798,0,0.0,0.0,0.0,0,0.0,0.0,0.0,35
611,4.16,3,2392.79,121.6,0.99626,0,0.0,0.0,0.0,0,0.0,0.0,0.0,36
611,4.16,3,2397.84,121.6,0.99836,0,0.0,0.0,0.0,0,0.0,0.0,0.0,37
611,4.16,3,2396.15,121.6,0.99766,0,0.0,0.0,0.0,0,0.0,0.0,0.0,38
611,4.16,3,2398.65,121.6,0.9987,0,0.0,0.0,0.0,0,0.0,0.0,0.0,39
611,4.16,3,2399.26,121.6,0.99895,0,0.0,0.0,0.0,0,0.0,0.0,0.0,40
611,4.16,3,2395.12,121.6,0.99723,0,0.0,0.0,0.0,0,0.0,0.0,0.0,41
611,4.16,3,2418.28,121.8,1.0069,0,0.0,0.0,0.0,0,0.0,0.0,0.0,42
611,4.16,3,2434.07,121.8,1.0134,0,0.0,0.0,0.0,0,0.0,0.0,0.0,43
611,4.16,3,2433.75,121.8,1.0133,0,0.0,0.0,0.0,0,0.0,0.0,0.0,44
611,4.16,3,2442.91,121.7,1.0171,0,0.0,0.0,0.0,0,0.0,0.0,0.0,45
611,4.16,3,2448.95,121.6,1.0196,0,0.0,0.0,0.0,0,0.0,0.0,0.0,46
611,4.16,3,2489.01,121.7,1.0363,0,0.0,0.0,0.0,0,0.0,0.0,0.0,47
611,4.16,3,2489.85,121.8,1.0367,0,0.0,0.0,0.0,0,0.0,0.0,0.0,48
611,4.16,3,2492.56,121.7,1.0378,0,0.0,0.0,0.0,0,0.0,0.0,0.0,49
611,4.16,3,2493.13,121.7,1.038,0,0.0,0.0,0.0,0,0.0,0.0,0.0,50
611,4.16,3,2492.57,121.7,1.0378,0,0.0,0.0,0.0,0,0.0,0.0,0.0,51
611,4.16,3,2489.23,121.7,1.0364,0,0.0,0.0,0.0,0,0.0,0.0,0.0,52
611,4.16,3,2483.53,121.8,1.034,0,0.0,0.0,0.0,0,0.0,0.0,0.0,53
611,4.16,3,2480.34,121.8,1.0327,0,0.0,0.0,0.0,0,0.0,0.0,0.0,54
611,4.16,3,2389.06,121.5,0.99471,0,0.0,0.0,0.0,0,0.0,0.0,0.0,55
611,4.16,3,2408.7,121.6,1.0029,0,0.0,0.0,0.0,0,0.0,0.0,0.0,56
611,4.16,3,2394.62,121.5,0.99702,0,0.0,0.0,0.0,0,0.0,0.0,0.0,57
611,4.16,3,2393.98,121.5,0.9967600000000001,0,0.0,0.0,0.0,0,0.0,0.0,0.0,58
611,4.16,3,2397.75,121.5,0.9983200000000001,0,0.0,0.0,0.0,0,0.0,0.0,0.0,59
611,4.16,3,2393.16,121.6,0.99641,0,0.0,0.0,0.0,0,0.0,0.0,0.0,60
611,4.16,3,2396.13,121.6,0.99765,0,0.0,0.0,0.0,0,0.0,0.0,0.0,61
611,4.16,3,2393.1,121.5,0.99639,0,0.0,0.0,0.0,0,0.0,0.0,0.0,62
611,4.16,3,2396.61,121.6,0.99785,0,0.0,0.0,0.0,0,0.0,0.0,0.0,63
611,4.16,3,2395.55,121.5,0.99741,0,0.0,0.0,0.0,0,0.0,0.0,0.0,64
611,4.16,3,2393.01,121.5,0.99635,0,0.0,0.0,0.0,0,0.0,0.0,0.0,65
611,4.16,3,2423.28,121.8,1.0090000000000001,0,0.0,0.0,0.0,0,0.0,0.0,0.0,66
611,4.16,3,2440.89,121.8,1.0163,0,0.0,0.0,0.0,0,0.0,0.0,0.0,67
611,4.16,3,2440.08,121.7,1.0159,0,0.0,0.0,0.0,0,0.0,0.0,0.0,68
611,4.16,3,2449.32,121.7,1.0198,0,0.0,0.0,0.0,0,0.0,0.0,0.0,69
611,4.16,3,2454.69,121.6,1.022,0,0.0,0.0,0.0,0,0.0,0.0,0.0,70
611,4.16,3,2490.03,121.7,1.0367,0,0.0,0.0,0.0,0,0.0,0.0,0.0,71
611,4.16,3,2491.34,121.8,1.0373,0,0.0,0.0,0.0,0,0.0,0.0,0.0,72
611,4.16,3,2494.52,121.7,1.0386,0,0.0,0.0,0.0,0,0.0,0.0,0.0,73
611,4.16,3,2495.23,121.7,1.0389,0,0.0,0.0,0.0,0,0.0,0.0,0.0,74
611,4.16,3,2495.28,121.7,1.0389,0,0.0,0.0,0.0,0,0.0,0.0,0.0,75
611,4.16,3,2495.26,121.7,1.0389,0,0.0,0.0,0.0,0,0.0,0.0,0.0,76
611,4.16,3,2492.7,121.8,1.0379,0,0.0,0.0,0.0,0,0.0,0.0,0.0,77
611,4.16,3,2489.45,121.8,1.0365,0,0.0,0.0,0.0,0,0.0,0.0,0.0,78
611,4.16,3,2420.72,121.7,1.0079,0,0.0,0.0,0.0,0,0.0,0.0,0.0,79
611,4.16,3,2422.69,121.7,1.0087,0,0.0,0.0,0.0,0,0.0,0.0,0.0,80
611,4.16,3,2394.27,121.5,0.99687,0,0.0,0.0,0.0,0,0.0,0.0,0.0,81
611,4.16,3,2391.9,121.5,0.9958899999999999,0,0.0,0.0,0.0,0,0.0,0.0,0.0,82
611,4.16,3,2397.0,121.6,0.9980100000000001,0,0.0,0.0,0.0,0,0.0,0.0,0.0,83
611,4.16,3,2394.66,121.6,0.9970399999999999,0,0.0,0.0,0.0,0,0.0,0.0,0.0,84
611,4.16,3,2400.29,121.6,0.9993799999999999,0,0.0,0.0,0.0,0,0.0,0.0,0.0,85
611,4.16,3,2395.13,121.6,0.99723,0,0.0,0.0,0.0,0,0.0,0.0,0.0,86
611,4.16,3,2396.82,121.6,0.9979399999999999,0,0.0,0.0,0.0,0,0.0,0.0,0.0,87
611,4.16,3,2396.08,121.6,0.9976299999999999,0,0.0,0.0,0.0,0,0.0,0.0,0.0,88
611,4.16,3,2391.69,121.6,0.9958,0,0.0,0.0,0.0,0,0.0,0.0,0.0,89
611,4.16,3,2416.26,121.9,1.006,0,0.0,0.0,0.0,0,0.0,0.0,0.0,90
611,4.16,3,2436.29,121.9,1.0144,0,0.0,0.0,0.0,0,0.0,0.0,0.0,91
611,4.16,3,2437.61,121.8,1.0149,0,0.0,0.0,0.0,0,0.0,0.0,0.0,92
611,4.16,3,2449.16,121.8,1.0197,0,0.0,0.0,0.0,0,0.0,0.0,0.0,93
611,4.16,3,2454.63,121.7,1.022,0,0.0,0.0,0.0,0,0.0,0.0,0.0,94
611,4.16,3,2489.22,121.8,1.0364,0,0.0,0.0,0.0,0,0.0,0.0,0.0,95
611,4.16,3,2490.79,121.8,1.0371,0,0.0,0.0,0.0,0,0.0,0.0,0.0,96
611,4.16,3,2493.54,121.8,1.0382,0,0.0,0.0,0.0,0,0.0,0.0,0.0,97
611,4.16,3,2494.5,121.8,1.0386,0,0.0,0.0,0.0,0,0.0,0.0,0.0,98
611,4.16,3,2494.62,121.8,1.0387,0,0.0,0.0,0.0,0,0.0,0.0,0.0,99
611,4.16,3,2494.72,121.8,1.0387,0,0.0,0.0,0.0,0,0.0,0.0,0.0,100
632,4.16,1,2434.7,0.9,1.0137,2,2463.44,-118.9,1.0257,3,2486.7,121.6,1.0354,1
632,4.16,1,2434.41,0.9,1.0136,2,2462.51,-118.9,1.0253,3,2486.88,121.6,1.0354,2
632,4.16,1,2433.93,0.9,1.0134,2,2464.23,-118.9,1.026,3,2486.85,121.6,1.0354,3
632,4.16,1,2433.8,0.9,1.0133,2,2464.57,-118.9,1.0261,3,2486.82,121.6,1.0354,4
632,4.16,1,2430.35,0.9,1.0119,2,2462.94,-118.9,1.0255,3,2485.47,121.6,1.0348,5
632,4.16,1,2428.81,0.9,1.0113,2,2460.64,-118.9,1.0245,3,2484.18,121.6,1.0343,6
632,4.16,1,2417.68,0.8,1.0066,2,2448.44,-119.0,1.0194,3,2479.39,121.6,1.0323,7
632,4.16,1,2418.35,0.8,1.0069,2,2447.82,-119.0,1.0192,3,2488.52,121.6,1.0361,8
632,4.16,1,2412.67,0.7,1.0045,2,2437.54,-119.1,1.0149,3,2488.61,121.7,1.0362,9
632,4.16,1,2415.95,0.8,1.0059,2,2444.62,-119.0,1.0178,3,2491.07,121.7,1.0372,10
632,4.16,1,2413.31,0.7,1.0048,2,2448.44,-119.1,1.0194,3,2488.46,121.7,1.0361,11
632,4.16,1,2411.25,0.7,1.0039,2,2447.17,-119.1,1.0189,3,2486.61,121.7,1.0353,12
632,4.16,1,2409.58,0.7,1.0032,2,2444.64,-119.1,1.0178,3,2484.59,121.7,1.0345,13
632,4.16,1,2410.27,0.7,1.0035,2,2444.73,-119.1,1.0179,3,2484.7,121.7,1.0345,14
632,4.16,1,2410.65,0.7,1.0037,2,2445.42,-119.1,1.0182,3,2485.22,121.7,1.0347,15
632,4.16,1,2410.38,0.7,1.0036,2,2445.51,-119.1,1.0182,3,2485.13,121.7,1.0347,16
632,4.16,1,2409.06,0.7,1.003,2,2442.61,-119.1,1.0170000000000001,3,2483.07,121.7,1.0338,17
632,4.16,1,2410.05,0.8,1.0034,2,2438.93,-119.1,1.0155,3,2477.43,121.7,1.0315,18
632,4.16,1,2410.07,0.8,1.0035,2,2429.19,-119.1,1.0114,3,2470.59,121.6,1.0287,19
632,4.16,1,2411.93,0.8,1.0042,2,2429.52,-119.1,1.0115,3,2472.0,121.6,1.0292,20
632,4.16,1,2415.71,0.8,1.0058,2,2429.5,-119.1,1.0115,3,2473.36,121.6,1.0298,21
632,4.16,1,2420.02,0.8,1.0076,2,2434.57,-119.1,1.0137,3,2476.88,121.6,1.0313,22
632,4.16,1,2429.81,0.9,1.0117,2,2450.38,-119.0,1.0202,3,2483.66,121.6,1.0341,23
632,4.16,1,2429.57,0.9,1.0116,2,2457.42,-119.0,1.0232,3,2482.68,121.6,1.0337,24
632,4.16,1,2432.47,0.9,1.0128,2,2463.67,-118.9,1.0258,3,2484.14,121.6,1.0343,25
632,4.16,1,2433.28,0.9,1.0131,2,2465.3,-118.9,1.0264,3,2484.85,121.5,1.0346,26
632,4.16,1,2433.57,0.9,1.0132,2,2466.19,-118.9,1.0268,3,2484.97,121.5,1.0346,27
632,4.16,1,2433.81,0.9,1.0133,2,2466.28,-118.9,1.0269,3,2484.92,121.5,1.0346,28
632,4.16,1,2423.69,0.8,1.0091,2,2464.35,-118.9,1.0261,3,2483.48,121.5,1.034,29
632,4.16,1,2420.6,0.8,1.0078,2,2460.46,-118.9,1.0244,3,2478.03,121.5,1.0317,30
632,4.16,1,2395.17,0.6,0.99725,2,2444.38,-119.0,1.0177,3,2424.98,121.5,1.0097,31
632,4.16,1,2387.16,0.5,0.9939100000000001,2,2444.77,-119.0,1.0179,3,2434.54,121.5,1.0136,32
632,4.16,1,2379.4,0.5,0.9906799999999999,2,2439.26,-119.1,1.0156,3,2428.86,121.5,1.0113,33
632,4.16,1,2374.87,0.4,0.98879,2,2435.9,-119.2,1.0142,3,2431.14,121.5,1.0122,34
632,4.16,1,2375.18,0.4,0.98893,2,2441.66,-119.1,1.0166,3,2434.6,121.5,1.0137,35
632,4.16,1,2370.17,0.4,0.9868399999999999,2,2437.54,-119.2,1.0149,3,2431.1,121.5,1.0122,36
632,4.16,1,2372.89,0.4,0.9879700000000001,2,2438.86,-119.2,1.0154,3,2434.05,121.5,1.0134,37
632,4.16,1,2371.21,0.4,0.9872700000000001,2,2439.96,-119.2,1.0159,3,2433.75,121.5,1.0133,38
632,4.16,1,2371.75,0.4,0.9875,2,2441.07,-119.2,1.0164,3,2435.34,121.5,1.014,39
632,4.16,1,2371.32,0.4,0.9873200000000001,2,2440.79,-119.1,1.0162,3,2435.61,121.5,1.0141,40
632,4.16,1,2368.45,0.4,0.9861200000000001,2,2437.74,-119.2,1.015,3,2432.34,121.5,1.0127,41
632,4.16,1,2364.24,0.4,0.9843700000000001,2,2430.94,-119.2,1.0121,3,2441.88,121.6,1.0167,42
632,4.16,1,2383.46,0.6,0.9923700000000001,2,2425.8,-119.2,1.01,3,2449.38,121.6,1.0198,43
632,4.16,1,2385.23,0.6,0.99311,2,2425.86,-119.2,1.01,3,2449.83,121.6,1.02,44
632,4.16,1,2399.19,0.7,0.99892,2,2426.98,-119.1,1.0105,3,2455.9,121.6,1.0225,45
632,4.16,1,2410.04,0.7,1.0034,2,2438.13,-119.0,1.0151,3,2462.55,121.5,1.0253,46
632,4.16,1,2425.48,0.8,1.0099,2,2454.45,-118.9,1.0219,3,2481.3,121.5,1.0331,47
632,4.16,1,2425.23,0.8,1.0098,2,2459.15,-119.0,1.0239,3,2481.21,121.6,1.0331,48
632,4.16,1,2429.04,0.8,1.0114,2,2464.45,-118.9,1.0261,3,2484.17,121.5,1.0343,49
632,4.16,1,2430.05,0.8,1.0118,2,2465.51,-118.9,1.0265,3,2484.73,121.5,1.0345,50
632,4.16,1,2430.68,0.9,1.012,2,2465.79,-118.9,1.0267,3,2484.41,121.5,1.0344,51
632,4.16,1,2430.7,0.9,1.012,2,2465.33,-118.9,1.0265,3,2482.49,121.5,1.0336,52
632,4.16,1,2419.24,0.8,1.0073,2,2461.38,-118.9,1.0248,3,2478.54,121.5,1.032,53
632,4.16,1,2415.96,0.7,1.0059,2,2456.99,-118.9,1.023,3,2476.14,121.5,1.031,54
632,4.16,1,2390.55,0.6,0.9953299999999999,2,2440.78,-119.0,1.0162,3,2423.22,121.5,1.0089,55
632,4.16,1,2383.14,0.5,0.99224,2,2443.25,-119.0,1.0173,3,2435.92,121.5,1.0142,56
632,4.16,1,2376.87,0.5,0.9896299999999999,2,2439.24,-119.1,1.0156,3,2433.13,121.5,1.0131,57
632,4.16,1,2373.1,0.4,0.98806,2,2436.53,-119.1,1.0145,3,2432.56,121.5,1.0128,58
632,4.16,1,2374.91,0.4,0.9888100000000001,2,2442.6,-119.1,1.0170000000000001,3,2435.32,121.5,1.014,59
632,4.16,1,2372.58,0.4,0.98785,2,2438.13,-119.2,1.0151,3,2431.38,121.5,1.0123,60
632,4.16,1,2376.22,0.5,0.98936,2,2438.57,-119.1,1.0153,3,2432.97,121.5,1.013,61
632,4.16,1,2373.54,0.4,0.98824,2,2438.12,-119.1,1.0151,3,2431.7,121.5,1.0125,62
632,4.16,1,2373.4,0.4,0.98818,2,2438.11,-119.1,1.0151,3,2433.73,121.5,1.0133,63
632,4.16,1,2372.56,0.4,0.9878299999999999,2,2437.6,-119.1,1.0149,3,2432.95,121.5,1.013,64
632,4.16,1,2369.59,0.4,0.9866,2,2435.39,-119.1,1.014,3,2430.76,121.5,1.0121,65
632,4.16,1,2367.49,0.4,0.98572,2,2431.43,-119.2,1.0123,3,2444.95,121.6,1.018,66
632,4.16,1,2387.91,0.6,0.99423,2,2427.24,-119.2,1.0106,3,2453.55,121.6,1.0216,67
632,4.16,1,2390.25,0.6,0.9952,2,2428.02,-119.1,1.0109,3,2453.93,121.6,1.0217,68
632,4.16,1,2403.76,0.7,1.0008,2,2428.76,-119.1,1.0112,3,2459.9,121.6,1.0242,69
632,4.16,1,2413.86,0.8,1.005,2,2439.71,-119.0,1.0158,3,2466.12,121.5,1.0268,70
632,4.16,1,2428.77,0.9,1.0112,2,2455.49,-118.9,1.0224,3,2482.16,121.5,1.0335,71
632,4.16,1,2428.55,0.9,1.0111,2,2460.26,-118.9,1.0244,3,2482.35,121.6,1.0335,72
632,4.16,1,2433.01,0.9,1.013,2,2465.89,-118.9,1.0267,3,2485.56,121.5,1.0349,73
632,4.16,1,2433.74,0.9,1.0133,2,2467.3,-118.9,1.0273,3,2486.27,121.5,1.0352,74
632,4.16,1,2433.8,0.9,1.0133,2,2467.94,-118.9,1.0275,3,2486.3,121.5,1.0352,75
632,4.16,1,2433.67,0.9,1.0133,2,2467.78,-118.9,1.0275,3,2486.24,121.5,1.0352,76
632,4.16,1,2423.37,0.8,1.0090000000000001,2,2465.61,-118.9,1.0266,3,2484.53,121.5,1.0345,77
632,4.16,1,2421.36,0.8,1.0082,2,2461.89,-118.9,1.025,3,2482.12,121.5,1.0335,78
632,4.16,1,2395.59,0.6,0.9974200000000001,2,2446.01,-119.0,1.0184,3,2441.98,121.5,1.0167,79
632,4.16,1,2387.0,0.5,0.99385,2,2445.79,-119.0,1.0183,3,2444.39,121.5,1.0177,80
632,4.16,1,2378.63,0.5,0.99036,2,2439.77,-119.1,1.0158,3,2432.93,121.5,1.013,81
632,4.16,1,2374.03,0.4,0.98845,2,2436.51,-119.2,1.0145,3,2431.1,121.5,1.0122,82
632,4.16,1,2374.74,0.4,0.98874,2,2442.83,-119.1,1.0171,3,2434.6,121.5,1.0137,83
632,4.16,1,2370.69,0.4,0.98706,2,2439.0,-119.2,1.0155,3,2432.11,121.5,1.0126,84
632,4.16,1,2373.06,0.4,0.9880399999999999,2,2439.34,-119.2,1.0156,3,2435.19,121.5,1.0139,85
632,4.16,1,2369.87,0.4,0.98672,2,2438.04,-119.2,1.0151,3,2432.68,121.5,1.0129,86
632,4.16,1,2368.49,0.4,0.98614,2,2437.9,-119.2,1.015,3,2433.7,121.5,1.0133,87
632,4.16,1,2366.97,0.4,0.98551,2,2437.64,-119.2,1.0149,3,2433.19,121.5,1.0131,88
632,4.16,1,2363.36,0.4,0.9840000000000001,2,2434.36,-119.2,1.0136,3,2429.74,121.5,1.0116,89
632,4.16,1,2358.63,0.4,0.98203,2,2427.21,-119.2,1.0106,3,2440.09,121.6,1.016,90
632,4.16,1,2378.91,0.5,0.9904799999999999,2,2421.83,-119.2,1.0083,3,2449.94,121.6,1.0201,91
632,4.16,1,2380.75,0.5,0.99124,2,2420.99,-119.2,1.008,3,2451.12,121.6,1.0205,92
632,4.16,1,2394.64,0.6,0.99703,2,2421.09,-119.2,1.008,3,2458.32,121.6,1.0235,93
632,4.16,1,2405.72,0.7,1.0016,2,2432.99,-119.1,1.013,3,2464.9,121.5,1.0263,94
632,4.16,1,2421.03,0.8,1.008,2,2450.12,-119.0,1.0201,3,2480.74,121.6,1.0329,95
632,4.16,1,2421.08,0.8,1.008,2,2455.78,-119.0,1.0225,3,2481.24,121.6,1.0331,96
632,4.16,1,2424.96,0.8,1.0097,2,2460.41,-119.0,1.0244,3,2483.94,121.6,1.0342,97
632,4.16,1,2426.14,0.8,1.0101,2,2462.22,-118.9,1.0252,3,2484.89,121.6,1.0346,98
632,4.16,1,2426.36,0.8,1.0102,2,2463.14,-118.9,1.0255,3,2484.98,121.6,1.0346,99
632,4.16,1,2427.04,0.8,1.0105,2,2463.32,-118.9,1.0256,3,2485.04,121.6,1.0347,100
...
RG60,4.16,1,2476.95,0.0,1.0313,2,2461.98,-120.0,1.0251,3,2447.08,120.0,1.0189,1
RG60,4.16,1,2476.95,0.0,1.0313,2,2461.98,-120.0,1.0251,3,2447.08,120.0,1.0189,2
RG60,4.16,1,2476.95,0.0,1.0313,2,2461.98,-120.0,1.0251,3,2447.08,120.0,1.0189,3
RG60,4.16,1,2476.95,0.0,1.0313,2,2461.98,-120.0,1.0251,3,2447.08,120.0,1.0189,4
RG60,4.16,1,2476.95,0.0,1.0313,2,2461.98,-120.0,1.0251,3,2447.07,120.0,1.0189,5
RG60,4.16,1,2476.94,0.0,1.0313,2,2461.97,-120.0,1.0251,3,2447.07,120.0,1.0189,6
RG60,4.16,1,2476.92,0.0,1.0313,2,2461.94,-120.0,1.025,3,2447.05,120.0,1.0189,7
RG60,4.16,1,2476.93,0.0,1.0313,2,2461.94,-120.0,1.025,3,2447.07,120.0,1.0189,8
RG60,4.16,1,2476.92,0.0,1.0313,2,2461.91,-120.0,1.025,3,2447.07,120.0,1.0189,9
RG60,4.16,1,2476.92,0.0,1.0313,2,2461.93,-120.0,1.025,3,2447.08,120.0,1.0189,10
RG60,4.16,1,2476.92,0.0,1.0313,2,2461.93,-120.0,1.025,3,2447.07,120.0,1.0189,11
RG60,4.16,1,2476.91,0.0,1.0313,2,2461.93,-120.0,1.025,3,2447.06,120.0,1.0189,12
RG60,4.16,1,2476.91,0.0,1.0313,2,2461.93,-120.0,1.025,3,2447.06,120.0,1.0189,13
RG60,4.16,1,2476.91,0.0,1.0313,2,2461.93,-120.0,1.025,3,2447.06,120.0,1.0189,14
RG60,4.16,1,2476.91,0.0,1.0313,2,2461.93,-120.0,1.025,3,2447.06,120.0,1.0189,15
RG60,4.16,1,2476.91,0.0,1.0313,2,2461.93,-120.0,1.025,3,2447.06,120.0,1.0189,16
RG60,4.16,1,2476.91,0.0,1.0313,2,2461.92,-120.0,1.025,3,2447.05,120.0,1.0189,17
RG60,4.16,1,2476.9,0.0,1.0313,2,2461.91,-120.0,1.025,3,2447.04,120.0,1.0188,18
RG60,4.16,1,2476.9,0.0,1.0313,2,2461.89,-120.0,1.025,3,2447.02,120.0,1.0188,19
RG60,4.16,1,2476.9,0.0,1.0313,2,2461.89,-120.0,1.025,3,2447.02,120.0,1.0188,20
RG60,4.16,1,2476.91,0.0,1.0313,2,2461.9,-120.0,1.025,3,2447.03,120.0,1.0188,21
RG60,4.16,1,2476.92,0.0,1.0313,2,2461.91,-120.0,1.025,3,2447.04,120.0,1.0188,22
RG60,4.16,1,2476.94,0.0,1.0313,2,2461.95,-120.0,1.0251,3,2447.06,120.0,1.0189,23
RG60,4.16,1,2476.94,0.0,1.0313,2,2461.96,-120.0,1.0251,3,2447.06,120.0,1.0189,24
RG60,4.16,1,2476.95,0.0,1.0313,2,2461.98,-120.0,1.0251,3,2447.07,120.0,1.0189,25
RG60,4.16,1,2476.95,0.0,1.0313,2,2461.98,-120.0,1.0251,3,2447.07,120.0,1.0189,26
RG60,4.16,1,2476.95,0.0,1.0313,2,2461.98,-120.0,1.0251,3,2447.07,120.0,1.0189,27
RG60,4.16,1,2476.95,0.0,1.0313,2,2461.98,-120.0,1.0251,3,2447.07,120.0,1.0189,28
RG60,4.16,1,2476.93,0.0,1.0313,2,2461.97,-120.0,1.0251,3,2447.07,120.0,1.0189,29
RG60,4.16,1,2476.92,0.0,1.0313,2,2461.96,-120.0,1.0251,3,2447.06,120.0,1.0189,30
RG60,4.16,1,2476.84,0.0,1.0313,2,2461.92,-120.0,1.025,3,2446.93,120.0,1.0188,31
RG60,4.16,1,2476.83,0.0,1.0313,2,2461.91,-120.0,1.025,3,2446.96,120.0,1.0188,32
RG60,4.16,1,2476.81,0.0,1.0312,2,2461.9,-120.0,1.025,3,2461.92,120.0,1.025,33
RG60,4.16,1,2476.8,0.0,1.0312,2,2461.89,-120.0,1.025,3,2461.92,120.0,1.025,34
RG60,4.16,1,2476.8,0.0,1.0312,2,2461.9,-120.0,1.025,3,2461.93,120.0,1.025,35
RG60,4.16,1,2476.79,0.0,1.0312,2,2461.89,-120.0,1.025,3,2461.92,120.0,1.025,36
RG60,4.16,1,2476.8,0.0,1.0312,2,2461.9,-120.0,1.025,3,2461.93,120.0,1.025,37
RG60,4.16,1,2476.8,0.0,1.0312,2,2461.9,-120.0,1.025,3,2461.93,120.0,1.025,38
RG60,4.16,1,2476.8,0.0,1.0312,2,2461.9,-120.0,1.025,3,2461.93,120.0,1.025,39
RG60,4.16,1,2476.8,0.0,1.0312,2,2461.9,-120.0,1.025,3,2461.93,120.0,1.025,40
RG60,4.16,1,2476.79,0.0,1.0312,2,2461.89,-120.0,1.025,3,2461.93,120.0,1.025,41
RG60,4.16,1,2476.79,0.0,1.0312,2,2461.87,-120.0,1.025,3,2461.94,120.0,1.025,42
RG60,4.16,1,2476.83,0.0,1.0312,2,2461.87,-120.0,1.025,3,2461.95,120.0,1.0251,43
RG60,4.16,1,2476.83,0.0,1.0312,2,2461.87,-120.0,1.025,3,2461.95,120.0,1.0251,44
RG60,4.16,1,2476.86,0.0,1.0313,2,2461.88,-120.0,1.025,3,2461.97,120.0,1.0251,45
RG60,4.16,1,2476.89,0.0,1.0313,2,2461.91,-120.0,1.025,3,2461.99,120.0,1.0251,46
RG60,4.16,1,2476.93,0.0,1.0313,2,2461.95,-120.0,1.0251,3,2447.06,120.0,1.0189,47
RG60,4.16,1,2476.93,0.0,1.0313,2,2461.96,-120.0,1.0251,3,2447.06,120.0,1.0189,48
RG60,4.16,1,2476.94,0.0,1.0313,2,2461.98,-120.0,1.0251,3,2447.07,120.0,1.0189,49
RG60,4.16,1,2476.94,0.0,1.0313,2,2461.98,-120.0,1.0251,3,2447.08,120.0,1.0189,50
RG60,4.16,1,2476.94,0.0,1.0313,2,2461.98,-120.0,1.0251,3,2447.07,120.0,1.0189,51
RG60,4.16,1,2476.94,0.0,1.0313,2,2461.98,-120.0,1.0251,3,2447.07,120.0,1.0189,52
RG60,4.16,1,2476.92,0.0,1.0313,2,2461.97,-120.0,1.0251,3,2447.06,120.0,1.0189,53
RG60,4.16,1,2476.91,0.0,1.0313,2,2461.95,-120.0,1.0251,3,2447.05,120.0,1.0189,54
RG60,4.16,1,2476.83,0.0,1.0313,2,2461.91,-120.0,1.025,3,2446.93,120.0,1.0188,55
RG60,4.16,1,2476.83,0.0,1.0312,2,2461.91,-120.0,1.025,3,2446.96,120.0,1.0188,56
RG60,4.16,1,2476.8,0.0,1.0312,2,2461.9,-120.0,1.025,3,2461.93,120.0,1.025,57
RG60,4.16,1,2476.8,0.0,1.0312,2,2461.89,-120.0,1.025,3,2461.93,120.0,1.025,58
RG60,4.16,1,2476.8,0.0,1.0312,2,2461.91,-120.0,1.025,3,2461.94,120.0,1.025,59
RG60,4.16,1,2476.8,0.0,1.0312,2,2461.9,-120.0,1.025,3,2461.92,120.0,1.025,60
RG60,4.16,1,2476.8,0.0,1.0312,2,2461.9,-120.0,1.025,3,2461.93,120.0,1.025,61
RG60,4.16,1,2476.8,0.0,1.0312,2,2461.9,-120.0,1.025,3,2461.92,120.0,1.025,62
RG60,4.16,1,2476.8,0.0,1.0312,2,2461.9,-120.0,1.025,3,2461.93,120.0,1.025,63
RG60,4.16,1,2476.8,0.0,1.0312,2,2461.89,-120.0,1.025,3,2461.93,120.0,1.025,64
RG60,4.16,1,2476.79,0.0,1.0312,2,2461.89,-120.0,1.025,3,2461.92,120.0,1.025,65
RG60,4.16,1,2476.79,0.0,1.0312,2,2461.88,-120.0,1.025,3,2461.95,120.0,1.0251,66
RG60,4.16,1,2476.84,0.0,1.0313,2,2461.88,-120.0,1.025,3,2461.96,120.0,1.0251,67
RG60,4.16,1,2476.84,0.0,1.0313,2,2461.88,-120.0,1.025,3,2461.96,120.0,1.0251,68
RG60,4.16,1,2476.87,0.0,1.0313,2,2461.89,-120.0,1.025,3,2461.98,120.0,1.0251,69
RG60,4.16,1,2476.9,0.0,1.0313,2,2461.92,-120.0,1.025,3,2462.0,120.0,1.0251,70
RG60,4.16,1,2476.94,0.0,1.0313,2,2461.96,-120.0,1.0251,3,2447.06,120.0,1.0189,71
RG60,4.16,1,2476.94,0.0,1.0313,2,2461.97,-120.0,1.0251,3,2447.07,120.0,1.0189,72
RG60,4.16,1,2476.95,0.0,1.0313,2,2461.98,-120.0,1.0251,3,2447.08,120.0,1.0189,73
RG60,4.16,1,2476.95,0.0,1.0313,2,2461.99,-120.0,1.0251,3,2447.08,120.0,1.0189,74
RG60,4.16,1,2476.95,0.0,1.0313,2,2461.99,-120.0,1.0251,3,2447.08,120.0,1.0189,75
RG60,4.16,1,2476.95,0.0,1.0313,2,2461.99,-120.0,1.0251,3,2447.08,120.0,1.0189,76
RG60,4.16,1,2476.93,0.0,1.0313,2,2461.98,-120.0,1.0251,3,2447.08,120.0,1.0189,77
RG60,4.16,1,2476.93,0.0,1.0313,2,2461.97,-120.0,1.0251,3,2447.07,120.0,1.0189,78
RG60,4.16,1,2476.85,0.0,1.0313,2,2461.92,-120.0,1.025,3,2446.97,120.0,1.0188,79
RG60,4.16,1,2476.84,0.0,1.0313,2,2461.91,-120.0,1.025,3,2446.98,120.0,1.0188,80
RG60,4.16,1,2476.81,0.0,1.0312,2,2461.9,-120.0,1.025,3,2461.93,120.0,1.025,81
RG60,4.16,1,2476.8,0.0,1.0312,2,2461.89,-120.0,1.025,3,2461.92,120.0,1.025,82
RG60,4.16,1,2476.8,0.0,1.0312,2,2461.91,-120.0,1.025,3,2461.93,120.0,1.025,83
RG60,4.16,1,2476.79,0.0,1.0312,2,2461.9,-120.0,1.025,3,2461.92,120.0,1.025,84
RG60,4.16,1,2476.8,0.0,1.0312,2,2461.9,-120.0,1.025,3,2461.93,120.0,1.025,85
RG60,4.16,1,2476.79,0.0,1.0312,2,2461.89,-120.0,1.025,3,2461.93,120.0,1.025,86
RG60,4.16,1,2476.79,0.0,1.0312,2,2461.89,-120.0,1.025,3,2461.93,120.0,1.025,87
RG60,4.16,1,2476.79,0.0,1.0312,2,2461.89,-120.0,1.025,3,2461.93,120.0,1.025,88
RG60,4.16,1,2476.78,0.0,1.0312,2,2461.88,-120.0,1.025,3,2461.92,120.0,1.025,89
RG60,4.16,1,2476.77,0.0,1.0312,2,2461.86,-120.0,1.025,3,2461.94,120.0,1.025,90
RG60,4.16,1,2476.82,0.0,1.0312,2,2461.86,-120.0,1.025,3,2461.95,120.0,1.0251,91
RG60,4.16,1,2476.82,0.0,1.0312,2,2461.86,-120.0,1.025,3,2461.95,120.0,1.0251,92
RG60,4.16,1,2476.86,0.0,1.0313,2,2461.87,-120.0,1.025,3,2461.97,120.0,1.0251,93
RG60,4.16,1,2476.88,0.0,1.0313,2,2461.9,-120.0,1.025,3,2461.99,120.0,1.0251,94
RG60,4.16,1,2476.93,0.0,1.0313,2,2461.94,-120.0,1.025,3,2447.06,120.0,1.0189,95
RG60,4.16,1,2476.93,0.0,1.0313,2,2461.96,-120.0,1.0251,3,2447.06,120.0,1.0189,96
RG60,4.16,1,2476.93,0.0,1.0313,2,2461.97,-120.0,1.0251,3,2447.07,120.0,1.0189,97
RG60,4.16,1,2476.94,0.0,1.0313,2,2461.97,-120.0,1.0251,3,2447.07,120.0,1.0189,98
RG60,4.16,1,2476.94,0.0,1.0313,2,2461.97,-120.0,1.0251,3,2447.07,120.0,1.0189,99
RG60,4.16,1,2476.94,0.0,1.0313,2,2461.97,-120.0,1.0251,3,2447.07,120.0,1.0189,100
SOURCEBUS,115.0,1,66399.7,30.0,1.0001,2,66400.9,-90.0,1.0001,3,66401.5,150.0,1.0001,1
SOURCEBUS,115.0,1,66399.7,30.0,1.0001,2,66400.8,-90.0,1.0001,3,66401.5,150.0,1.0001,2
SOURCEBUS,115.0,1,66399.7,30.0,1.0001,2,66400.9,-90.0,1.0001,3,66401.5,150.0,1.0001,3
SOURCEBUS,115.0,1,66399.7,30.0,1.0001,2,66400.9,-90.0,1.0001,3,66401.5,150.0,1.0001,4
SOURCEBUS,115.0,1,66399.6,30.0,1.0001,2,66400.8,-90.0,1.0001,3,66401.4,150.0,1.0001,5
SOURCEBUS,115.0,1,66399.6,30.0,1.0001,2,66400.8,-90.0,1.0001,3,66401.4,150.0,1.0001,6
SOURCEBUS,115.0,1,66399.2,30.0,1.0001,2,66400.4,-90.0,1.0001,3,66401.2,150.0,1.0001,7
SOURCEBUS,115.0,1,66399.2,30.0,1.0001,2,66400.4,-90.0,1.0001,3,66401.4,150.0,1.0001,8
SOURCEBUS,115.0,1,66399.0,30.0,1.0001,2,66400.1,-90.0,1.0001,3,66401.4,150.0,1.0001,9
SOURCEBUS,115.0,1,66399.1,30.0,1.0001,2,66400.3,-90.0,1.0001,3,66401.5,150.0,1.0001,10
SOURCEBUS,115.0,1,66399.1,30.0,1.0001,2,66400.4,-90.0,1.0001,3,66401.4,150.0,1.0001,11
SOURCEBUS,115.0,1,66399.1,30.0,1.0001,2,66400.3,-90.0,1.0001,3,66401.3,150.0,1.0001,12
SOURCEBUS,115.0,1,66399.1,30.0,1.0001,2,66400.2,-90.0,1.0001,3,66401.3,150.0,1.0001,13
SOURCEBUS,115.0,1,66399.1,30.0,1.0001,2,66400.2,-90.0,1.0001,3,66401.3,150.0,1.0001,14
SOURCEBUS,115.0,1,66399.1,30.0,1.0001,2,66400.2,-90.0,1.0001,3,66401.3,150.0,1.0001,15
SOURCEBUS,115.0,1,66399.1,30.0,1.0001,2,66400.2,-90.0,1.0001,3,66401.3,150.0,1.0001,16
SOURCEBUS,115.0,1,66399.0,30.0,1.0001,2,66400.1,-90.0,1.0001,3,66401.2,150.0,1.0001,17
SOURCEBUS,115.0,1,66399.0,30.0,1.0001,2,66400.0,-90.0,1.0001,3,66401.1,150.0,1.0001,18
SOURCEBUS,115.0,1,66398.9,30.0,1.0001,2,66399.7,-90.0,1.0001,3,66400.9,150.0,1.0001,19
SOURCEBUS,115.0,1,66398.9,30.0,1.0001,2,66399.7,-90.0,1.0001,3,66400.9,150.0,1.0001,20
SOURCEBUS,115.0,1,66399.0,30.0,1.0001,2,66399.8,-90.0,1.0001,3,66401.0,150.0,1.0001,21
SOURCEBUS,115.0,1,66399.1,30.0,1.0001,2,66400.0,-90.0,1.0001,3,66401.1,150.0,1.0001,22
SOURCEBUS,115.0,1,66399.5,30.0,1.0001,2,66400.5,-90.0,1.0001,3,66401.4,150.0,1.0001,23
SOURCEBUS,115.0,1,66399.6,30.0,1.0001,2,66400.7,-90.0,1.0001,3,66401.3,150.0,1.0001,24
SOURCEBUS,115.0,1,66399.7,30.0,1.0001,2,66400.9,-90.0,1.0001,3,66401.4,150.0,1.0001,25
SOURCEBUS,115.0,1,66399.7,30.0,1.0001,2,66400.9,-90.0,1.0001,3,66401.4,150.0,1.0001,26
SOURCEBUS,115.0,1,66399.7,30.0,1.0001,2,66400.9,-90.0,1.0001,3,66401.4,150.0,1.0001,27
SOURCEBUS,115.0,1,66399.7,30.0,1.0001,2,66400.9,-90.0,1.0001,3,66401.4,150.0,1.0001,28
SOURCEBUS,115.0,1,66399.4,30.0,1.0001,2,66400.9,-90.0,1.0001,3,66401.4,150.0,1.0001,29
SOURCEBUS,115.0,1,66399.3,30.0,1.0001,2,66400.7,-90.0,1.0001,3,66401.2,150.0,1.0001,30
SOURCEBUS,115.0,1,66398.5,30.0,1.0,2,66399.7,-90.0,1.0001,3,66399.7,150.0,1.0001,31
SOURCEBUS,115.0,1,66398.3,30.0,1.0,2,66399.8,-90.0,1.0001,3,66399.9,150.0,1.0001,32
SOURCEBUS,115.0,1,66398.1,30.0,1.0,2,66399.4,-90.0,1.0001,3,66399.3,150.0,1.0001,33
SOURCEBUS,115.0,1,66398.0,30.0,1.0,2,66399.3,-90.0,1.0001,3,66399.3,150.0,1.0001,34
SOURCEBUS,115.0,1,66398.1,30.0,1.0,2,66399.5,-90.0,1.0001,3,66399.4,150.0,1.0001,35
SOURCEBUS,115.0,1,66398.0,30.0,1.0,2,66399.3,-90.0,1.0001,3,66399.3,150.0,1.0001,36
SOURCEBUS,115.0,1,66398.0,30.0,1.0,2,66399.4,-90.0,1.0001,3,66399.4,150.0,1.0001,37
SOURCEBUS,115.0,1,66398.0,30.0,1.0,2,66399.4,-90.0,1.0001,3,66399.4,150.0,1.0001,38
SOURCEBUS,115.0,1,66398.0,30.0,1.0,2,66399.5,-90.0,1.0001,3,66399.4,150.0,1.0001,39
SOURCEBUS,115.0,1,66398.0,30.0,1.0,2,66399.5,-90.0,1.0001,3,66399.4,150.0,1.0001,40
SOURCEBUS,115.0,1,66397.9,30.0,1.0,2,66399.4,-90.0,1.0001,3,66399.3,150.0,1.0001,41
SOURCEBUS,115.0,1,66397.7,30.0,1.0,2,66399.2,-90.0,1.0001,3,66399.5,150.0,1.0001,42
SOURCEBUS,115.0,1,66398.2,30.0,1.0,2,66399.2,-90.0,1.0001,3,66399.8,150.0,1.0001,43
SOURCEBUS,115.0,1,66398.2,30.0,1.0,2,66399.2,-90.0,1.0001,3,66399.8,150.0,1.0001,44
SOURCEBUS,115.0,1,66398.5,30.0,1.0,2,66399.3,-90.0,1.0001,3,66400.0,150.0,1.0001,45
SOURCEBUS,115.0,1,66398.9,30.0,1.0001,2,66399.8,-90.0,1.0001,3,66400.3,150.0,1.0001,46
SOURCEBUS,115.0,1,66399.4,30.0,1.0001,2,66400.6,-90.0,1.0001,3,66401.3,150.0,1.0001,47
SOURCEBUS,115.0,1,66399.4,30.0,1.0001,2,66400.7,-90.0,1.0001,3,66401.3,150.0,1.0001,48
SOURCEBUS,115.0,1,66399.6,30.0,1.0001,2,66400.9,-90.0,1.0001,3,66401.4,150.0,1.0001,49
SOURCEBUS,115.0,1,66399.6,30.0,1.0001,2,66400.9,-90.0,1.0001,3,66401.4,150.0,1.0001,50
SOURCEBUS,115.0,1,66399.6,30.0,1.0001,2,66400.9,-90.0,1.0001,3,66401.4,150.0,1.0001,51
SOURCEBUS,115.0,1,66399.6,30.0,1.0001,2,66400.9,-90.0,1.0001,3,66401.4,150.0,1.0001,52
SOURCEBUS,115.0,1,66399.3,30.0,1.0001,2,66400.7,-90.0,1.0001,3,66401.2,150.0,1.0001,53
SOURCEBUS,115.0,1,66399.2,30.0,1.0001,2,66400.6,-90.0,1.0001,3,66401.1,150.0,1.0001,54
SOURCEBUS,115.0,1,66398.4,30.0,1.0,2,66399.5,-90.0,1.0001,3,66399.6,150.0,1.0001,55
SOURCEBUS,115.0,1,66398.2,30.0,1.0,2,66399.8,-90.0,1.0001,3,66399.9,150.0,1.0001,56
SOURCEBUS,115.0,1,66398.1,30.0,1.0,2,66399.5,-90.0,1.0001,3,66399.4,150.0,1.0001,57
SOURCEBUS,115.0,1,66398.0,30.0,1.0,2,66399.4,-90.0,1.0001,3,66399.3,150.0,1.0001,58
SOURCEBUS,115.0,1,66398.1,30.0,1.0,2,66399.6,-90.0,1.0001,3,66399.4,150.0,1.0001,59
SOURCEBUS,115.0,1,66398.0,30.0,1.0,2,66399.4,-90.0,1.0001,3,66399.3,150.0,1.0001,60
SOURCEBUS,115.0,1,66398.1,30.0,1.0,2,66399.4,-90.0,1.0001,3,66399.4,150.0,1.0001,61
SOURCEBUS,115.0,1,66398.0,30.0,1.0,2,66399.4,-90.0,1.0001,3,66399.3,150.0,1.0001,62
SOURCEBUS,115.0,1,66398.0,30.0,1.0,2,66399.4,-90.0,1.0001,3,66399.4,150.0,1.0001,63
SOURCEBUS,115.0,1,66398.0,30.0,1.0,2,66399.4,-90.0,1.0001,3,66399.3,150.0,1.0001,64
SOURCEBUS,115.0,1,66397.9,30.0,1.0,2,66399.3,-90.0,1.0001,3,66399.3,150.0,1.0001,65
SOURCEBUS,115.0,1,66397.8,30.0,1.0,2,66399.3,-90.0,1.0001,3,66399.6,150.0,1.0001,66
SOURCEBUS,115.0,1,66398.3,30.0,1.0,2,66399.3,-90.0,1.0001,3,66399.9,150.0,1.0001,67
SOURCEBUS,115.0,1,66398.3,30.0,1.0,2,66399.3,-90.0,1.0001,3,66399.9,150.0,1.0001,68
SOURCEBUS,115.0,1,66398.7,30.0,1.0001,2,66399.4,-90.0,1.0001,3,66400.2,150.0,1.0001,69
SOURCEBUS,115.0,1,66399.0,30.0,1.0001,2,66399.9,-90.0,1.0001,3,66400.4,150.0,1.0001,70
SOURCEBUS,115.0,1,66399.5,30.0,1.0001,2,66400.6,-90.0,1.0001,3,66401.3,150.0,1.0001,71
SOURCEBUS,115.0,1,66399.5,30.0,1.0001,2,66400.7,-90.0,1.0001,3,66401.3,150.0,1.0001,72
SOURCEBUS,115.0,1,66399.7,30.0,1.0001,2,66400.9,-90.0,1.0001,3,66401.5,150.0,1.0001,73
SOURCEBUS,115.0,1,66399.7,30.0,1.0001,2,66401.0,-90.0,1.0001,3,66401.5,150.0,1.0001,74
SOURCEBUS,115.0,1,66399.7,30.0,1.0001,2,66401.0,-90.0,1.0001,3,66401.5,150.0,1.0001,75
SOURCEBUS,115.0,1,66399.7,30.0,1.0001,2,66401.0,-90.0,1.0001,3,66401.5,150.0,1.0001,76
SOURCEBUS,115.0,1,66399.4,30.0,1.0001,2,66400.9,-90.0,1.0001,3,66401.4,150.0,1.0001,77
SOURCEBUS,115.0,1,66399.3,30.0,1.0001,2,66400.8,-90.0,1.0001,3,66401.3,150.0,1.0001,78
SOURCEBUS,115.0,1,66398.6,30.0,1.0,2,66399.9,-90.0,1.0001,3,66400.1,150.0,1.0001,79
SOURCEBUS,115.0,1,66398.3,30.0,1.0,2,66399.9,-90.0,1.0001,3,66400.2,150.0,1.0001,80
SOURCEBUS,115.0,1,66398.1,30.0,1.0,2,66399.5,-90.0,1.0001,3,66399.4,150.0,1.0001,81
SOURCEBUS,115.0,1,66398.0,30.0,1.0,2,66399.3,-90.0,1.0001,3,66399.3,150.0,1.0001,82
SOURCEBUS,115.0,1,66398.1,30.0,1.0,2,66399.5,-90.0,1.0001,3,66399.4,150.0,1.0001,83
SOURCEBUS,115.0,1,66398.0,30.0,1.0,2,66399.4,-90.0,1.0001,3,66399.3,150.0,1.0001,84
SOURCEBUS,115.0,1,66398.0,30.0,1.0,2,66399.4,-90.0,1.0001,3,66399.4,150.0,1.0001,85
SOURCEBUS,115.0,1,66398.0,30.0,1.0,2,66399.4,-90.0,1.0001,3,66399.3,150.0,1.0001,86
SOURCEBUS,115.0,1,66397.9,30.0,1.0,2,66399.4,-90.0,1.0001,3,66399.3,150.0,1.0001,87
SOURCEBUS,115.0,1,66397.9,30.0,1.0,2,66399.4,-90.0,1.0001,3,66399.3,150.0,1.0001,88
SOURCEBUS,115.0,1,66397.7,30.0,1.0,2,66399.2,-90.0,1.0001,3,66399.2,150.0,1.0001,89
SOURCEBUS,115.0,1,66397.6,30.0,1.0,2,66399.1,-90.0,1.0001,3,66399.4,150.0,1.0001,90
SOURCEBUS,115.0,1,66398.0,30.0,1.0,2,66399.1,-90.0,1.0001,3,66399.8,150.0,1.0001,91
SOURCEBUS,115.0,1,66398.1,30.0,1.0,2,66399.1,-90.0,1.0001,3,66399.8,150.0,1.0001,92
SOURCEBUS,115.0,1,66398.4,30.0,1.0,2,66399.2,-90.0,1.0001,3,66400.1,150.0,1.0001,93
SOURCEBUS,115.0,1,66398.7,30.0,1.0001,2,66399.6,-90.0,1.0001,3,66400.3,150.0,1.0001,94
SOURCEBUS,115.0,1,66399.2,30.0,1.0001,2,66400.4,-90.0,1.0001,3,66401.3,150.0,1.0001,95
SOURCEBUS,115.0,1,66399.3,30.0,1.0001,2,66400.6,-90.0,1.0001,3,66401.3,150.0,1.0001,96
SOURCEBUS,115.0,1,66399.5,30.0,1.0001,2,66400.7,-90.0,1.0001,3,66401.4,150.0,1.0001,97
SOURCEBUS,115.0,1,66399.5,30.0,1.0001,2,66400.8,-90.0,1.0001,3,66401.4,150.0,1.0001,98
SOURCEBUS,115.0,1,66399.5,30.0,1.0001,2,66400.8,-90.0,1.0001,3,66401.4,150.0,1.0001,99
SOURCEBUS,115.0,1,66399.5,30.0,1.0001,2,66400.8,-90.0,1.0001,3,66401.4,150.0,1.0001,100
